Version 4
SHEET 1 1268 680
WIRE 496 0 320 0
WIRE 752 64 752 48
WIRE 720 80 640 80
WIRE 816 96 784 96
WIRE 720 112 704 112
WIRE 320 160 320 0
WIRE 368 160 320 160
WIRE 496 176 496 0
WIRE 496 176 432 176
WIRE 560 176 496 176
WIRE 704 176 704 112
WIRE 704 176 640 176
WIRE 736 176 704 176
WIRE 816 176 816 96
WIRE 176 192 112 192
WIRE 320 192 256 192
WIRE 368 192 320 192
WIRE 112 208 112 192
FLAG 112 288 0
FLAG 400 208 0
FLAG 752 128 0
FLAG 400 64 0
FLAG 752 -32 0
FLAG 320 272 0
FLAG 640 256 0
FLAG 560 80 0
SYMBOL voltage 112 192 R0
WINDOW 123 0 0 Left 0
WINDOW 39 0 0 Left 0
SYMATTR InstName V2
SYMATTR Value SINE(6.05 0.17 10)
SYMBOL voltage 752 64 R180
WINDOW 123 0 0 Left 0
WINDOW 39 0 0 Left 0
SYMATTR InstName V3
SYMATTR Value 5
SYMBOL voltage 400 160 R180
WINDOW 123 0 0 Left 0
WINDOW 39 0 0 Left 0
SYMATTR InstName V4
SYMATTR Value 5
SYMBOL res 272 176 R90
WINDOW 0 0 56 VBottom 2
WINDOW 3 32 56 VTop 2
SYMATTR InstName R1
SYMATTR Value 98k
SYMBOL res 336 288 R180
WINDOW 0 36 76 Left 2
WINDOW 3 36 40 Left 2
SYMATTR InstName R2
SYMATTR Value 98k
SYMBOL OpAmps\\LTC6079 400 176 R0
SYMATTR InstName U1
SYMBOL OpAmps\\LTC6079 752 96 R0
SYMATTR InstName U2
SYMBOL res 832 160 R90
WINDOW 0 0 56 VBottom 2
WINDOW 3 32 56 VTop 2
SYMATTR InstName R4
SYMATTR Value 36.9k
SYMBOL res 656 160 R90
WINDOW 0 0 56 VBottom 2
WINDOW 3 32 56 VTop 2
SYMATTR InstName R3
SYMATTR Value 1100
SYMBOL res 624 160 R0
SYMATTR InstName R5
SYMATTR Value 2.1k
SYMBOL voltage 656 80 R90
WINDOW 0 -32 56 VBottom 2
WINDOW 3 32 56 VTop 2
WINDOW 123 0 0 Left 0
WINDOW 39 0 0 Left 0
SYMATTR InstName V1
SYMATTR Value 2
TEXT 78 312 Left 2 !.tran 0 1 0 0.1
